125
COMPLEX1 CHARGE=+1
C	-0.7760	-0.084	5.02577
C	0.79121	-0.094	5.00764
N	1.11309	-1.359	4.39113
C	-0.0136	-2.108	4.05969
N	-1.1255	-1.322	4.36735
N	-1.1059	1.1307	4.30558
C	0.00957	1.8067	3.83373
N	1.12290	1.0927	4.23595
O	-0.0002	2.856	3.20725
O	-0.0311	-3.239	3.62491
C	2.46211	1.6348	4.11265
C	2.44671	-1.921	4.287
C	-4.8071	-0.090	1.8586
C	-4.0100	-0.083	3.20974
N	-3.2439	-1.303	3.15656
C	-3.5003	-2.057	2.01222
N	-4.3711	-1.307	1.21995
N	-4.3870	1.1499	1.22088
C	-3.4769	1.8588	1.9754
N	-3.2451	1.1542	3.13321
O	-2.9888	2.9477	1.67967
O	-3.0799	-3.166	1.76886
C	-2.4286	1.6964	4.20319
C	-2.4674	-1.851	4.25456
C	4.82382	-0.260	-1.86055
C	4.01223	-0.198	-3.20113
N	3.23992	-1.417	-3.18616
C	3.43330	-2.171	-2.02983
N	4.30187	-1.447	-1.21638
N	4.51674	1.0049	-1.22334
C	3.60803	1.7673	-1.93964
N	3.25846	1.0366	-3.06752
O	3.20869	2.8826	-1.65518
O	2.96367	-3.263	-1.79482
C	2.46211	1.6348	-4.11265
C	2.44671	-1.921	-4.287
C	4.01223	-0.198	3.20113
C	4.82382	-0.260	1.86055
N	4.30187	-1.447	1.21638
C	3.43330	-2.171	2.02983
N	3.23992	-1.417	3.18616
N	3.25846	1.0366	3.06752
C	3.60803	1.7673	1.93964
N	4.51674	1.0049	1.22334
O	3.20869	2.8826	1.65518
O	2.96367	-3.263	1.79482
C	5.11633	1.4975	0.0000
C	4.83228	-2.027	0.00000
C	-4.0100	-0.083	-3.20974
C	-4.8071	-0.090	-1.8586
N	-4.3711	-1.307	-1.21995
C	-3.5003	-2.057	-2.01222
N	-3.2439	-1.303	-3.15656
N	-3.2451	1.1542	-3.13321
C	-3.4769	1.8588	-1.9754
N	-4.3870	1.1499	-1.22088
O	-2.9888	2.9477	-1.67967
O	-3.0799	-3.166	-1.76886
C	-4.9479	1.6889	0.00000
C	-4.9286	-1.856	0.00000
C	0.79121	-0.094	-5.00764
C	-0.7760	-0.084	-5.02577
N	-1.1255	-1.322	-4.36735
C	-0.0136	-2.108	-4.05969
N	1.11309	-1.359	-4.39113
N	1.12290	1.0927	-4.23595
C	0.00957	1.8067	-3.83373
N	-1.1059	1.1307	-4.30558
O	-0.0002	2.856	-3.20725
O	-0.0311	-3.239	-3.62491
C	-2.4286	1.6964	-4.20319
C	-2.4674	-1.851	-4.25456
H	-1.2040	-0.047	6.03708
H	1.24225	-0.026	6.00712
H	2.97499	1.5185	5.07679
H	2.35909	2.6931	3.85929
H	2.98564	-1.744	5.22644
H	2.31521	-2.993	4.11474
H	-5.8974	-0.086	1.99091
H	-4.6534	-0.064	4.09962
H	-2.3089	2.7622	3.99518
H	-2.9539	1.5480	5.15444
H	-2.3630	-2.922	4.05995
H	-3.0091	-1.680	5.19417
H	5.90874	-0.350	-2.00991
H	4.64838	-0.157	-4.0963
H	2.97499	1.5185	-5.07679
H	2.35909	2.6931	-3.85929
H	2.98564	-1.744	-5.22644
H	2.31521	-2.993	-4.11474
H	4.64838	-0.157	4.0963
H	5.90874	-0.350	2.00991
H	4.98004	2.5817	0.00000
H	6.18263	1.2430	0.00000
H	4.53725	-3.080	0.00000
H	5.92678	-1.932	0.00000
H	-4.6534	-0.064	-4.09962
H	-5.8974	-0.086	-1.99091
H	-6.0300	1.5113	0.00000
H	-4.7378	2.7608	0.00000
H	-6.0164	-1.707	0.00000
H	-4.6863	-2.923	0.00000
H	1.24225	-0.026	-6.00712
H	-1.2040	-0.047	-6.03708
H	-2.3089	2.7622	-3.99518
H	-2.9539	1.5480	-5.15444
H	-2.3630	-2.922	-4.05995
H	-3.0091	-1.680	-5.19417
C	0.06842	-1.681	0.00000
C	0.69672	-0.286	0.00000
C	-0.3534	0.8339	0.00000
C	0.30033	2.2089	0.00000
N	-0.7426	3.3039	0.00000
H	-1.3664	3.2390	0.829115
H	-0.2905	4.2212	0.00000
H	-1.3664	3.2390	-0.829115
H	0.83311	-2.461	0.00000
H	-0.5585	-1.834	-0.884099
H	-0.5585	-1.834	0.884099
H	1.34279	-0.165	0.879089
H	1.34279	-0.165	-0.879089
H	-0.9971	0.7246	0.882964
H	-0.9971	0.7246	-0.882964
H	0.91209	2.3728	0.886888
H	0.91209	2.3728	-0.886888
