177
 COMPLEX1 CHARGE=+2
O	-3.0248	-2.861	-2.95243
O	-4.1040	0.7307	-3.19006
O	-1.9022	3.7175	-3.1965
O	1.72568	3.9662	-3.22664
O	3.87769	0.9855	-2.98313
O	3.32254	-2.641	-2.90835
O	0.20832	-4.357	-2.85758
O	-3.2050	-2.512	3.08167
O	-4.2043	0.9086	2.93642
O	-2.0530	3.7402	2.88022
O	1.61113	3.7515	2.86978
O	4.25477	1.1787	3.10398
O	3.47616	-2.367	3.16192
O	0.19402	-4.100	3.26781
N	-3.1443	-4.278	-1.11246
N	-4.4798	-2.485	-1.17181
N	-5.1896	-0.159	-1.33517
N	-4.8197	2.0425	-1.4039
N	-3.3458	3.9909	-1.38835
N	-1.3991	5.098	-1.38819
N	1.04766	5.2204	-1.38458
N	3.05377	4.2349	-1.33373
N	4.63235	2.3764	-1.27678
N	5.13720	0.2011	-1.1885
N	4.76636	-2.200	-1.13733
N	3.52318	-4.048	-1.06547
N	1.34496	-5.137	-0.98142
N	-0.8886	-5.207	-0.989627
N	-3.0905	-4.041	1.32758
N	-4.6659	-2.455	1.27291
N	-5.2531	-0.089	1.11427
N	-4.8553	2.1089	1.05083
N	-3.4579	4.1049	1.06091
N	-1.4453	5.0622	1.06421
N	0.98518	5.0809	1.06357
N	3.05918	4.2507	1.1177
N	4.66382	2.4153	1.17413
N	5.35571	0.2907	1.25339
N	4.86889	-2.109	1.31198
N	3.48773	-3.871	1.38227
N	1.34325	-5.037	1.47229
N	-0.8907	-5.082	1.45864
C	-3.8648	-4.361	0.137443
C	-4.8839	-3.179	0.0419921
C	0.22021	-4.837	-1.7363
C	2.67129	-5.102	-1.56551
C	-5.8497	0.3248	-0.141781
C	-5.5797	1.8661	-0.183303
C	3.80639	-2.925	-1.82406
C	5.45063	-1.092	-1.76187
C	-3.4279	4.8186	-0.201096
C	-2.0409	5.5438	-0.171251
C	4.47205	1.1676	-1.93307
C	4.24673	3.6323	-1.88885
C	1.60466	5.6518	-0.119763
C	3.03443	5.0160	-0.112877
C	1.91360	4.4146	-2.11111
C	5.40963	2.2599	-0.0593999
C	5.82743	0.7524	-0.0347756
C	-2.2052	-5.269	-1.59135
C	-3.4879	-3.168	-1.8664
C	5.18523	-2.835	0.101497
C	4.26477	-4.098	0.179835
C	-5.3150	-1.504	-1.84637
C	-4.6311	0.8581	-2.10018
C	1.02807	-5.790	0.275217
C	-0.5366	-5.831	0.272003
C	-4.4844	3.3256	-1.98927
C	-2.1757	4.1995	-2.11514
C	-2.2269	-4.998	2.00065
C	-3.6022	-2.945	2.01264
C	-0.2022	5.6929	-1.94931
C	0.21635	-4.663	2.18856
C	2.67535	-4.885	2.02355
C	-5.4943	-1.369	1.74925
C	-4.7051	0.9679	1.82579
C	3.88490	-2.730	2.07669
C	5.65040	-1.005	1.83361
C	-4.6131	3.4275	1.60247
C	-2.2876	4.2360	1.78974
C	4.69842	1.2775	1.97518
C	4.25680	3.6946	1.71497
C	-0.2362	5.5922	1.65107
C	1.85622	4.2903	1.80271
H	-4.3371	-5.347	0.243642
H	4.04578	3.5320	2.77483
H	-0.2375	5.2940	2.70225
H	-0.2414	6.6872	1.56282
H	5.07357	4.4189	1.59479
H	6.71529	-1.226	1.68686
H	-5.5013	4.0509	1.43731
H	-4.4324	3.2949	2.67175
H	5.41915	-0.927	2.89875
H	3.19626	-5.850	1.96679
H	-6.5474	-1.643	1.6084
H	-5.2718	-1.243	2.81128
H	2.55092	-4.579	3.06547
H	-0.1826	5.4278	-3.00931
H	-2.1276	-4.666	3.03722
H	-2.6980	-5.989	1.96035
H	-0.2587	6.7822	-1.82676
H	-0.9514	-6.847	0.320723
H	-5.3602	3.9856	-1.92484
H	1.49571	-6.783	0.313188
H	-4.2257	3.1360	-3.034
H	4.81825	-5.044	0.252253
H	-6.3639	-1.824	-1.77478
H	6.25719	-3.070	0.0635478
H	-4.9969	-1.476	-2.8914
H	6.90990	0.5919	-0.128168
H	-2.6298	-6.266	-1.41904
H	6.26053	2.9541	-0.0853009
H	-2.0734	-5.090	-2.66088
H	3.84683	5.7551	-0.115571
H	4.03213	3.4282	-2.94072
H	1.60780	6.7481	-0.0547536
H	5.08634	4.3344	-1.79921
H	-2.1150	6.6393	-0.154897
H	6.53521	-1.255	-1.69917
H	-4.2833	5.5041	-0.267875
H	5.12800	-1.068	-2.80552
H	-6.4941	2.4739	-0.210399
H	2.54099	-4.926	-2.63577
H	-6.9165	0.0635	-0.158879
H	3.16177	-6.069	-1.39209
H	-5.9308	-3.502	-0.0338679
Fe	0.14239	0.1264	-0.000993351
C	1.44463	0.3396	1.52635
C	-0.0630	-1.413	1.30883
C	1.03328	-1.656	0.428937
C	1.96325	-0.575	0.563635
C	0.18460	-0.173	1.99236
C	-1.4444	0.1184	-1.27055
C	-1.5022	1.2577	-0.414127
C	-0.3024	2.0171	-0.596914
C	0.50305	1.3492	-1.56606
C	-0.1989	0.1672	-1.98775
C	-0.7310	0.5125	2.93928
C	0.32228	-0.859	-2.92554
N	-0.3850	0.2470	4.41782
N	0.07893	-0.509	-4.40643
C	-0.4496	-1.229	4.70673
C	0.99341	0.7665	4.73405
C	-1.4096	0.9807	5.24026
C	0.79292	0.7681	-4.766
C	0.63124	-1.649	-5.21759
C	-1.3963	-0.355	-4.66601
H	1.89212	1.2706	1.841
H	-0.9387	-2.033	1.43362
H	1.13387	-2.494	-0.244178
H	2.88006	-0.459	0.00533145
H	-2.1883	-0.659	-1.35738
H	-2.2997	1.4948	0.274675
H	-0.0396	2.9198	-0.0658045
H	1.48043	1.6493	-1.91308
H	-1.7635	0.1787	2.82466
H	-0.6929	1.5983	2.8337
H	1.40380	-0.981	-2.84073
H	-0.1591	-1.828	-2.77953
H	0.31356	-1.736	4.11796
H	-0.2633	-1.372	5.77225
H	-1.4393	-1.594	4.43064
H	1.72580	0.1845	4.17572
H	1.04563	1.8174	4.44688
H	1.15714	0.6482	5.80612
H	-2.3959	0.5940	4.98221
H	-1.1882	0.8134	6.29519
H	-1.3520	2.0412	4.99266
H	1.84559	0.6677	-4.49907
H	0.67714	0.9244	-5.83947
H	0.33952	1.5918	-4.2157
H	1.69391	-1.747	-4.99249
H	0.10683	-2.560	-4.92766
H	0.47462	-1.428	-6.27415
H	-1.7699	0.4861	-4.08504
H	-1.5324	-0.170	-5.73257
H	-1.8995	-1.273	-4.36137
